$# LS-DYNA Keyword file created by LS-PrePost(R) V4.10.5-23Jun2023
$# Created on Jul-17-2024 (06:29:23)
*KEYWORD
*TITLE
$#                                                                         title
Cylinder Analysis in LS-Dyna
*ELEMENT_SHELL
$#   eid     pid      n1      n2      n3      n4      n5      n6      n7      n8
       1       1      49      51      52      50       0       0       0       0
       2       1      50      52      53       1       0       0       0       0
       3       1       1      53      54       2       0       0       0       0
       4       1       2      54      55       3       0       0       0       0
       5       1       3      55      56       4       0       0       0       0
       6       1       4      56      57       5       0       0       0       0
       7       1       5      57      58       6       0       0       0       0
       8       1      48      59      51      49       0       0       0       0
       9       1      47      60      59      48       0       0       0       0
      10       1       6      58      61       7       0       0       0       0
      11       1       7      61      62       8       0       0       0       0
      12       1       8      62      63       9       0       0       0       0
      13       1       9      63      64      10       0       0       0       0
      14       1      10      64      65      11       0       0       0       0
      15       1      11      65      66      12       0       0       0       0
      16       1      12      66      67      13       0       0       0       0
      17       1      13      67      68      14       0       0       0       0
      18       1      14      68      69      15       0       0       0       0
      19       1      15      69      70      16       0       0       0       0
      20       1      16      70      71      17       0       0       0       0
$ ... 2980 like lines cut
*NODE
$#   nid               x               y               z      tc      rc
       1             0.0           127.0             0.0       0       0
       2             0.0        125.9986        15.91732       0       0
       3             0.0        123.0101        31.58362       0       0
       4             0.0        118.0816        46.75182       0       0
       5             0.0         111.291        61.18272       0       0
       6             0.0        102.7452        74.64873       0       0
       7             0.0        92.57901        86.93749       0       0
       8             0.0        80.95284        97.85518       0       0
       9             0.0           68.05        107.2297       0       0
      10             0.0        54.07396         114.913       0       0
      11             0.0        39.24516        120.7842       0       0
      12             0.0        23.79742        124.7505       0       0
      13             0.0        7.974379        126.7494       0       0
      14             0.0       -7.974405        126.7494       0       0
      15             0.0       -23.79744        124.7505       0       0
      16             0.0       -39.24516        120.7842       0       0
      17             0.0       -54.07398         114.913       0       0
      18             0.0       -68.05002        107.2296       0       0
      19             0.0       -80.95287        97.85516       0       0
      20             0.0       -92.57903        86.93748       0       0
$ ... 2982 like lines cut
*BOUNDARY_PRESCRIBED_MOTION_SET
$#    nsid       dof       vad      lcid        sf       vid     death     birth
         1         1         2         1       1.0         01.00000E28       0.0
*BOUNDARY_SPC_SET
$#    nsid       cid      dofx      dofy      dofz     dofrx     dofry     dofrz
         2         0         1         0         0         0         0         0
*SET_NODE_LIST_TITLE
Constraint
$#     sid       da1       da2       da3       da4    solver       its         -
         2       0.0       0.0       0.0       0.0MECH      1                  
$#    nid1      nid2      nid3      nid4      nid5      nid6      nid7      nid8
       277       278       279       280       281       282       283       284
       285       286       287       288       289       290       291       292
       293       294       295       296       297       298       299       300
       301       302       303       304       305       306       307       308
       309       310       311       312       313       314       315       316
       317       318       319       320       321       322       323       324
       325       326       327       328       329       330       331       332
       333       334       335       336       337       338       339       340
       341       342       343       344       345       346       347       348
       349       350       351       352       353       354       355       356
       357       358       359       360       361       362       363       364
       365       366       367       368       369       370       371       372
       373       374       375       376       377       378       379       380
       381       382       383       384       385       386       387       388
       389       390       391       392       393       394       395       396
       397       398       399       400       401       402       403       404
       405       406       407       408       409       410       411       412
       413       414       415       416       417       418       419       420
       421       422       423       424       425       426       427       428
       429       430       431       432       433       434       435       436
$ ... 15 like lines cut
*CONTACT_AUTOMATIC_SINGLE_SURFACE
$#     cid                                                                 title
$#   surfa     surfb  surfatyp  surfbtyp   saboxid   sbboxid      sapr      sbpr
         1         0         3         0         0         0         0         0
$#      fs        fd        dc        vc       vdc    penchk        bt        dt
       0.0       0.0       0.0       0.0       0.0         0       0.01.00000E20
$#    sfsa      sfsb      sast      sbst     sfsat     sfsbt       fsf       vsf
       1.0       1.0       0.0       0.0       1.0       1.0       1.0       1.0
*CONTROL_TERMINATION
$#  endtim    endcyc     dtmin    endeng    endmas     nosol
      50.0         0       0.0       0.01.000000E8         0
*DATABASE_BNDOUT
$#      dt    binary      lcur     ioopt   option1   option2   option3   option4
       0.1         0         0         1         0         0         0         0
*DATABASE_NODOUT
$#      dt    binary      lcur     ioopt   option1   option2
       0.1         0         0         1       0.0         0
*DATABASE_SPCFORC
$#      dt    binary      lcur     ioopt
       0.1         0         0         1
*DATABASE_BINARY_D3PLOT
$#      dt      lcdt      beam     npltc    psetid
       0.2         0         0         0         0
*DATABASE_EXTENT_BINARY
$#   neiph     neips    maxint    strflg    sigflg    epsflg    rltflg    engflg
         0         0         3         1         1         1         1         1
$#  cmpflg    ieverp    beamip     dcomp      shge     stssz    n3thdt   ialemat
         0         0         0         1         1         1         2         1
$# nintsld   pkp_sen      sclp     hydro     msscl     therm    intout    nodout
         0         0       1.0         0         0         0                    
$#    dtdt    resplt     neipb   quadsld    cubsld   deleres
         0         0         0         0         0         0
*DATABASE_HISTORY_NODE_SET
$#     id1       id2       id3       id4       id5       id6       id7       id8
         1         0         0         0         0         0         0         0
*DEFINE_CURVE_TITLE
Load Curve
$#    lcid      sidr       sfa       sfo      offa      offo    dattyp     lcint
         1         0       1.0       1.0       0.0       0.0         0         0
$#                a1                  o1
                 0.0                 0.0
                50.0               500.0
*MAT_ELASTIC_TITLE
AirTied Material
$#     mid        ro         e        pr        da        db  not used
         11.11400E-7      18.0       0.4       0.0       0.0       0.0
*PART
$#                                                                         title
cylindershell
$#     pid     secid       mid     eosid      hgid      grav    adpopt      tmid
         1         1         1         0         0         0         0         0
*SECTION_SHELL
$#   secid    elform      shrf       nip     propt   qr/irid     icomp     setyp
         1         2       1.0         2       1.0         0         0         1
$#      t1        t2        t3        t4      nloc     marea      idof    edgset
       2.0       2.0       2.0       2.0       0.0       0.0       0.0         0
*SET_NODE_LIST_TITLE
Displacement
$#     sid       da1       da2       da3       da4    solver       its         -
         1       0.0       0.0       0.0       0.0MECH      1                  
$#    nid1      nid2      nid3      nid4      nid5      nid6      nid7      nid8
         1         2         3         4         5         6         7         8
         9        10        11        12        13        14        15        16
        17        18        19        20        21        22        23        24
        25        26        27        28        29        30        31        32
        33        34        35        36        37        38        39        40
        41        42        43        44        45        46        47        48
        49        50        51        52        53        54        55        56
        57        58        59        60        61        62        63        64
        65        66        67        68        69        70        71        72
        73        74        75        76        77        78        79        80
        81        82        83        84        85        86        87        88
        89        90        91        92        93        94        95        96
        97        98        99       100       101       102       103       104
       105       106       107       108       109       110       111       112
       113       114       115       116       117       118       119       120
       121       122       123       124       125       126       127       128
       129       130       131       132       133       134       135       136
       137       138       139       140       141       142       143       144
       145       146       147       148       149       150       151       152
       153       154       155       156       157       158       159       160
$ ... 15 like lines cut
*END
