$# LS-DYNA Keyword file created by LS-PrePost(R) V4.10.5-23Jun2023
$# Created on Jul-9-2024 (23:33:58)
*KEYWORD
*TITLE
$#                                                                         title
LS-DYNA keyword deck by LS-PrePost
*DEFINE_CURVE_TITLE
Mass Flow Rate
$#    lcid      sidr       sfa       sfo      offa      offo    dattyp     lcint
         1         0       1.0       1.0       0.0       0.0         0         0
$#                a1                  o1
                 0.0                0.01
                30.0                0.01
                40.0                 0.0
*DEFINE_CURVE_TITLE
Displacement
$#    lcid      sidr       sfa       sfo      offa      offo    dattyp     lcint
         2         0       1.0       1.0       0.0       0.0         0         0
$#                a1                  o1
                 0.0                 0.0
                20.0               500.0
*MAT_FABRIC_TITLE
airtied
$#     mid        ro        ea        eb         -      prba      prab         -
         11.11400E-7      18.0      18.0                 0.4       0.4          
$#     gab         -         -       cse        el       prl    lratio      damp
      0.04                           1.0       0.0       0.0       0.0      0.05
$#    aopt       flc       fac       ela      lnrc      form     fvopt    tsrfac
       0.0       0.0       0.0       0.0       0.0         0         0       0.0
$#  unused    rgbrth     a0ref        a1        a2        a3        x0        x1
                 0.0         0       0.0       0.0       0.0       0.0       0.0
$#      v1        v2        v3         -         -         -      beta    isrefg
       0.0       0.0       0.0                                     0.0         0
*BOUNDARY_PRESCRIBED_MOTION_SET
$#    nsid       dof       vad      lcid        sf       vid     death     birth
         2         1         2         2      -1.0         01.00000E28      50.0
*BOUNDARY_SPC_SET_BIRTH_DEATH
$#    nsid       cid      dofx      dofy      dofz     dofrx     dofry     dofrz
         1         0         1         1         1         1         1         1
$#   birth     death
      15.01.00000E20
*SET_NODE_LIST_TITLE
Constrained
$#     sid       da1       da2       da3       da4    solver       its         -
         1       0.0       0.0       0.0       0.0MECH      1                   
$#    nid1      nid2      nid3      nid4      nid5      nid6      nid7      nid8
       101       202       303       404       505       606       707       808
       909      1010      1111      1212      1313      1414      1515      1616
      1717      1818      1919      2020      2121      2222      2323      2424
      2525      2626      2727      2828      2929      3030      3131      3232
      3333      3434      3535      3636      3737      3838      3939      4040
      4141      4242      4343      4444      4545      4646      4747      4848
      4949      5050      5151         0         0         0         0         0
*CONTROL_TERMINATION
$#  endtim    endcyc     dtmin    endeng    endmas     nosol
     100.0         0       0.0       0.01.000000E8         0
*ELEMENT_SHELL
$#   eid     pid      n1      n2      n3      n4      n5      n6      n7      n8
       1       1       1       2     103     102       0       0       0       0
       2       1       2       3     104     103       0       0       0       0
       3       1       3       4     105     104       0       0       0       0
       4       1       4       5     106     105       0       0       0       0
       5       1       5       6     107     106       0       0       0       0
       6       1       6       7     108     107       0       0       0       0
       7       1       7       8     109     108       0       0       0       0
       8       1       8       9     110     109       0       0       0       0
       9       1       9      10     111     110       0       0       0       0
      10       1      10      11     112     111       0       0       0       0
      11       1      11      12     113     112       0       0       0       0
      12       1      12      13     114     113       0       0       0       0
      13       1      13      14     115     114       0       0       0       0
      14       1      14      15     116     115       0       0       0       0
      15       1      15      16     117     116       0       0       0       0
      16       1      16      17     118     117       0       0       0       0
      17       1      17      18     119     118       0       0       0       0
      18       1      18      19     120     119       0       0       0       0
      19       1      19      20     121     120       0       0       0       0
      20       1      20      21     122     121       0       0       0       0
$ ... 9980 like lines cut
*PART
$#                                                                         title
Airtied 1
$#     pid     secid       mid     eosid      hgid      grav    adpopt      tmid
         1         1         1         0         0         0         0         0
*SECTION_SHELL_TITLE
shell
$#   secid    elform      shrf       nip     propt   qr/irid     icomp     setyp
         1         5       1.0         4       1.0         0         0         1
$#      t1        t2        t3        t4      nloc     marea      idof    edgset
       0.4       0.4       0.4       0.4       0.0       0.0       0.0         0
*PART
$#                                                                         title
Airtied 2
$#     pid     secid       mid     eosid      hgid      grav    adpopt      tmid
         2         1         1         0         0         0         0         0
*DATABASE_ABSTAT
$#      dt    binary      lcur     ioopt
       0.1         1         0         1
*DATABASE_BNDOUT
$#      dt    binary      lcur     ioopt   option1   option2   option3   option4
       0.1         1         0         1         0         0         0         0
*DATABASE_NODOUT
$#      dt    binary      lcur     ioopt   option1   option2
       0.1         1         0         1       0.0         0
*DATABASE_SPCFORC
$#      dt    binary      lcur     ioopt
       0.1         1         0         1
*DATABASE_BINARY_D3PLOT
$#      dt      lcdt      beam     npltc    psetid
       0.1         0         0         0         0
*NODE
$#   nid               x               y               z      tc      rc
       1           500.0           250.0             0.5       0       0
       2           490.0           250.0             0.5       0       0
       3           480.0           250.0             0.5       0       0
       4           470.0           250.0             0.5       0       0
       5           460.0           250.0             0.5       0       0
       6           450.0           250.0             0.5       0       0
       7           440.0           250.0             0.5       0       0
       8           430.0           250.0             0.5       0       0
       9           420.0           250.0             0.5       0       0
      10           410.0           250.0             0.5       0       0
      11           400.0           250.0             0.5       0       0
      12           390.0           250.0             0.5       0       0
      13           380.0           250.0             0.5       0       0
      14           370.0           250.0             0.5       0       0
      15           360.0           250.0             0.5       0       0
      16           350.0           250.0             0.5       0       0
      17           340.0           250.0             0.5       0       0
      18           330.0           250.0             0.5       0       0
      19           320.0           250.0             0.5       0       0
      20           310.0           250.0             0.5       0       0
$ ... 9982 like lines cut
*AIRBAG_SIMPLE_AIRBAG_MODEL
$#     sid    sidtyp      rbid      vsca      psca      vini       mwd      spsf
         1         1         0       1.0       1.0       0.0       0.0       0.0
$#      cv        cp         t      lcid        mu      area        pe        ro
     718.0    1005.0     293.0         1       0.7       0.01.01300E-41.22500E-9
$#     lou      text         a         b        mw      gasc
         0       0.0       0.0       0.0       0.0       0.0
*SET_NODE_LIST_TITLE
Displacement
$#     sid       da1       da2       da3       da4    solver       its         -
         2       0.0       0.0       0.0       0.0MECH      1                   
$#    nid1      nid2      nid3      nid4      nid5      nid6      nid7      nid8
         1       102       203       304       405       506       607       708
       809       910      1011      1112      1213      1314      1415      1516
      1617      1718      1819      1920      2021      2122      2223      2324
      2425      2526      2627      2728      2829      2930      3031      3132
      3233      3334      3435      3536      3637      3738      3839      3940
      4041      4142      4243      4344      4445      4546      4647      4748
      4849      4950      5051         0         0         0         0         0
*SET_PART_LIST_TITLE
airbag
$#     sid       da1       da2       da3       da4    solver
         1       0.0       0.0       0.0       0.0MECH
$#    pid1      pid2      pid3      pid4      pid5      pid6      pid7      pid8
         1         2         0         0         0         0         0         0
*END
